data/case123_ieee.m
function mpc = case123
%CASE33BW  Power flow data for 123 bus distribution system from Kersting 1991/2001
%    Please see CASEFORMAT for details on the case file format.
%
%    Data from ...
%       W. H. Kersting, "Radial Distribution Test Feeders," in IEEE Transactions
%       on Power System, vol. 6, no. 3, pp. 975-985, Aug 1991.

%% MATPOWER Case Format : Version 2
mpc.version = '2';

%%-----  Power Flow Data  -----%%
%% system MVA base
mpc.baseMVA = 1;

%% bus data
%	bus_i	type	Pd	Qd	Gs	Bs	area	Vm	Va	baseKV	zone	Vmax	Vmin
mpc.bus = [
	1	3	0.04	0.02	0	0	1	1	0	4.16	1	1.05	0.95;
	2	1	0.02	0.01	0	0	1	1	0	4.16	1	1.05	0.95;
	3	1	0	0	0	0	1	1	0	4.16	1	1.05	0.95;
	4	1	0.04	0.02	0	0	1	1	0	4.16	1	1.05	0.95;
	5	1	0.02	0.01	0	0	1	1	0	4.16	1	1.05	0.95;
	6	1	0.04	0.02	0	0	1	1	0	4.16	1	1.05	0.95;
	7	1	0.02	0.01	0	0	1	1	0	4.16	1	1.05	0.95;
	8	1	0	0	0	0	1	1	0	4.16	1	1.05	0.95;
	9	1	0.04	0.02	0	0	1	1	0	4.16	1	1.05	0.95;
	10	1	0.02	0.01	0	0	1	1	0	4.16	1	1.05	0.95;
	11	1	0.04	0.02	0	0	1	1	0	4.16	1	1.05	0.95;
	12	1	0.02	0.01	0	0	1	1	0	4.16	1	1.05	0.95;
	13	1	0	0	0	0	1	1	0	4.16	1	1.05	0.95;
	14	1	0	0	0	0	1	1	0	4.16	1	1.05	0.95;
	15	1	0	0	0	0	1	1	0	4.16	1	1.05	0.95;
	16	1	0.04	0.02	0	0	1	1	0	4.16	1	1.05	0.95;
	17	1	0.02	0.01	0	0	1	1	0	4.16	1	1.05	0.95;
	18	1	0	0	0	0	1	1	0	4.16	1	1.05	0.95;
	19	1	0.04	0.02	0	0	1	1	0	4.16	1	1.05	0.95;
	20	1	0.04	0.02	0	0	1	1	0	4.16	1	1.05	0.95;
	21	1	0	0	0	0	1	1	0	4.16	1	1.05	0.95;
	22	1	0.04	0.02	0	0	1	1	0	4.16	1	1.05	0.95;
	23	1	0	0	0	0	1	1	0	4.16	1	1.05	0.95;
	24	1	0.04	0.02	0	0	1	1	0	4.16	1	1.05	0.95;
	25	1	0	0	0	0	1	1	0	4.16	1	1.05	0.95;
	26	1	0	0	0	0	1	1	0	4.16	1	1.05	0.95;
	27	1	0	0	0	0	1	1	0	4.16	1	1.05	0.95;
	28	1	0.04	0.02	0	0	1	1	0	4.16	1	1.05	0.95;
	29	1	0.04	0.02	0	0	1	1	0	4.16	1	1.05	0.95;
	30	1	0.04	0.02	0	0	1	1	0	4.16	1	1.05	0.95;
	31	1	0.02	0.01	0	0	1	1	0	4.16	1	1.05	0.95;
	32	1	0.02	0.01	0	0	1	1	0	4.16	1	1.05	0.95;
	33	1	0.04	0.02	0	0	1	1	0	4.16	1	1.05	0.95;
	34	1	0.04	0.02	0	0	1	1	0	4.16	1	1.05	0.95;
	35	1	0.04	0.02	0	0	1	1	0	4.16	1	1.05	0.95;
	36	1	0	0	0	0	1	1	0	4.16	1	1.05	0.95;
	37	1	0.04	0.02	0	0	1	1	0	4.16	1	1.05	0.95;
	38	1	0.02	0.01	0	0	1	1	0	4.16	1	1.05	0.95;
	39	1	0.02	0.01	0	0	1	1	0	4.16	1	1.05	0.95;
	40	1	0	0	0	0	1	1	0	4.16	1	1.05	0.95;
	41	1	0.02	0.01	0	0	1	1	0	4.16	1	1.05	0.95;
	42	1	0.02	0.01	0	0	1	1	0	4.16	1	1.05	0.95;
	43	1	0.04	0.02	0	0	1	1	0	4.16	1	1.05	0.95;
	44	1	0	0	0	0	1	1	0	4.16	1	1.05	0.95;
	45	1	0.02	0.01	0	0	1	1	0	4.16	1	1.05	0.95;
	46	1	0.02	0.01	0	0	1	1	0	4.16	1	1.05	0.95;
	47	1	0.105	0.075	0	0	1	1	0	4.16	1	1.05	0.95;
	48	1	0.21	0.15	0	0	1	1	0	4.16	1	1.05	0.95;
	49	1	0.14	0.095	0	0	1	1	0	4.16	1	1.05	0.95;
	50	1	0.04	0.02	0	0	1	1	0	4.16	1	1.05	0.95;
	51	1	0.02	0.01	0	0	1	1	0	4.16	1	1.05	0.95;
	52	1	0.04	0.02	0	0	1	1	0	4.16	1	1.05	0.95;
	53	1	0.04	0.02	0	0	1	1	0	4.16	1	1.05	0.95;
	54	1	0	0	0	0	1	1	0	4.16	1	1.05	0.95;
	55	1	0.02	0.01	0	0	1	1	0	4.16	1	1.05	0.95;
	56	1	0.02	0.01	0	0	1	1	0	4.16	1	1.05	0.95;
	57	1	0	0	0	0	1	1	0	4.16	1	1.05	0.95;
	58	1	0.02	0.01	0	0	1	1	0	4.16	1	1.05	0.95;
	59	1	0.02	0.01	0	0	1	1	0	4.16	1	1.05	0.95;
	60	1	0.02	0.01	0	0	1	1	0	4.16	1	1.05	0.95;
	61	1	0	0	0	0	1	1	0	4.16	1	1.05	0.95;
	62	1	0.04	0.02	0	0	1	1	0	4.16	1	1.05	0.95;
	63	1	0.04	0.02	0	0	1	1	0	4.16	1	1.05	0.95;
	64	1	0.075	0.035	0	0	1	1	0	4.16	1	1.05	0.95;
	65	1	0.14	0.1	0	0	1	1	0	4.16	1	1.05	0.95;
	66	1	0.075	0.035	0	0	1	1	0	4.16	1	1.05	0.95;
	67	1	0	0	0	0	1	1	0	4.16	1	1.05	0.95;
	68	1	0.02	0.01	0	0	1	1	0	4.16	1	1.05	0.95;
	69	1	0.04	0.02	0	0	1	1	0	4.16	1	1.05	0.95;
	70	1	0.02	0.01	0	0	1	1	0	4.16	1	1.05	0.95;
	71	1	0.04	0.02	0	0	1	1	0	4.16	1	1.05	0.95;
	72	1	0	0	0	0	1	1	0	4.16	1	1.05	0.95;
	73	1	0.04	0.02	0	0	1	1	0	4.16	1	1.05	0.95;
	74	1	0.04	0.02	0	0	1	1	0	4.16	1	1.05	0.95;
	75	1	0.04	0.02	0	0	1	1	0	4.16	1	1.05	0.95;
	76	1	0.245	0.18	0	0	1	1	0	4.16	1	1.05	0.95;
	77	1	0.04	0.02	0	0	1	1	0	4.16	1	1.05	0.95;
	78	1	0	0	0	0	1	1	0	4.16	1	1.05	0.95;
	79	1	0.04	0.02	0	0	1	1	0	4.16	1	1.05	0.95;
	80	1	0.04	0.02	0	0	1	1	0	4.16	1	1.05	0.95;
	81	1	0	0	0	0	1	1	0	4.16	1	1.05	0.95;
	82	1	0.04	0.02	0	0	1	1	0	4.16	1	1.05	0.95;
	83	1	0.02	0.01	0	0	1	1	0	4.16	1	1.05	0.95;
	84	1	0.02	0.01	0	0	1	1	0	4.16	1	1.05	0.95;
	85	1	0.04	0.02	0	0	1	1	0	4.16	1	1.05	0.95;
	86	1	0.02	0.01	0	0	1	1	0	4.16	1	1.05	0.95;
	87	1	0.04	0.02	0	0	1	1	0	4.16	1	1.05	0.95;
	88	1	0.04	0.02	0	0	1	1	0	4.16	1	1.05	0.95;
	89	1	0	0	0	0	1	1	0	4.16	1	1.05	0.95;
	90	1	0.04	0.02	0	0	1	1	0	4.16	1	1.05	0.95;
	91	1	0	0	0	0	1	1	0	4.16	1	1.05	0.95;
	92	1	0.04	0.02	0	0	1	1	0	4.16	1	1.05	0.95;
	93	1	0	0	0	0	1	1	0	4.16	1	1.05	0.95;
	94	1	0.04	0.02	0	0	1	1	0	4.16	1	1.05	0.95;
	95	1	0.02	0.01	0	0	1	1	0	4.16	1	1.05	0.95;
	96	1	0.02	0.01	0	0	1	1	0	4.16	1	1.05	0.95;
	97	1	0	0	0	0	1	1	0	4.16	1	1.05	0.95;
	98	1	0.04	0.02	0	0	1	1	0	4.16	1	1.05	0.95;
	99	1	0.04	0.02	0	0	1	1	0	4.16	1	1.05	0.95;
	100	1	0.04	0.02	0	0	1	1	0	4.16	1	1.05	0.95;
	101	1	0	0	0	0	1	1	0	4.16	1	1.05	0.95;
	102	1	0.02	0.01	0	0	1	1	0	4.16	1	1.05	0.95;
	103	1	0.04	0.02	0	0	1	1	0	4.16	1	1.05	0.95;
	104	1	0.04	0.02	0	0	1	1	0	4.16	1	1.05	0.95;
	105	1	0	0	0	0	1	1	0	4.16	1	1.05	0.95;
	106	1	0.04	0.02	0	0	1	1	0	4.16	1	1.05	0.95;
	107	1	0.04	0.02	0	0	1	1	0	4.16	1	1.05	0.95;
	108	1	0	0	0	0	1	1	0	4.16	1	1.05	0.95;
	109	1	0.04	0.02	0	0	1	1	0	4.16	1	1.05	0.95;
	110	1	0	0	0	0	1	1	0	4.16	1	1.05	0.95;
	111	1	0.02	0.01	0	0	1	1	0	4.16	1	1.05	0.95;
	112	1	0.02	0.01	0	0	1	1	0	4.16	1	1.05	0.95;
	113	1	0.04	0.02	0	0	1	1	0	4.16	1	1.05	0.95;
	114	1	0.02	0.01	0	0	1	1	0	4.16	1	1.05	0.95;
	115	1	0	0	0	0	1	1	0	4.16	1	1.05	0.95;
	116	1	0	0	0	0	1	1	0	4.16	1	1.05	0.95;
	117	1	0	0	0	0	1	1	0	4.16	1	1.05	0.95;
	118	1	0	0	0	0	1	1	0	4.16	1	1.05	0.95;
	119	1	0	0	0	0	1	1	0	4.16	1	1.05	0.95;
	120	1	0	0	0	0	1	1	0	4.16	1	1.05	0.95;
	121	1	0	0	0	0	1	1	0	4.16	1	1.05	0.95;
	122	1	0	0	0	0	1	1	0	4.16	1	1.05	0.95;
	123	1	0	0	0	0	1	1	0	4.16	1	1.05	0.95;
];

%% generator data
%	bus	Pg	Qg	Qmax	Qmin	Vg	mBase	status	Pmax	Pmin	Pc1	Pc2	Qc1min	Qc1max	Qc2min	Qc2max	ramp_agc	ramp_10	ramp_30	ramp_q	apf
mpc.gen = [
	1	 0.0	 0.0	 1	 -1	 1.06	 100.0	 1	 1.250	 0.0	 0.0	 0.0	 0.0	 0.0	 0.0	 0.0	 0.6	 0.0	 0.0	 0.0	 0.0;
	25	 0.0	 0.0	 0.250	 -0.250	 1.04017	 100.0	 1	 0.275	 0.0	 0.0	 0.0	 0.0	 0.0	 0.0	 0.0	 0.15	 0.0	 0.0	 0.0	 0.0;
	35	 0.0	 0.0	 0.250	 -0.250	 1.00788	 100.0	 1	 0.300	 0.0	 0.0	 0.0	 0.0	 0.0	 0.0	 0.0	 0.15	 0.0	 0.0	 0.0	 0.0;
	60	 0.0	 0.0	 1	 -1	 1.06	 100.0	 1	 1.200	 0.0	 0.0	 0.0	 0.0	 0.0	 0.0	 0.0	 0.6	 0.0	 0.0	 0.0	 0.0;
	76	 0.0	 0.0	 0.250	 -0.250	 1.06	 100.0	 1	 0.225	 0.0	 0.0	 0.0	 0.0	 0.0	 0.0	 0.0	 0.1	 0.0	 0.0	 0.0	 0.0;
	97	 0.0	 0.0	 0.250	 -0.250	 1.06	 100.0	 1	 0.275	 0.0	 0.0	 0.0	 0.0	 0.0	 0.0	 0.0	 0.15	 0.0	 0.0	 0.0	 0.0;
	108	 0.0	 0.0	 0.250	 -0.250	 1.06	 100.0	 1	 0.250	 0.0	 0.0	 0.0	 0.0	 0.0	 0.0	 0.0	 0.1	 0.0	 0.0	 0.0	 0.0;
	116	 0.0	 0.0	 2	 -2	 1.06	 100.0	 1	 4.000	 0.0	 0.0	 0.0	 0.0	 0.0	 0.0	 0.0	 2	 0.0	 0.0	 0.0	 0.0;
];

%% generator cost data
%	2	startup	shutdown	n	c(n-1)	...	c0
mpc.gencost = [
	2	 0.0	 0.0	 3	   5.0000	   10.000000	   2.00000;
	2	 0.0	 0.0	 3	   20.0000	   10.00000	   4.00000;
	2	 0.0	 0.0	 3	   30.0000	   15.00000	   8.00000;
	2	 0.0	 0.0	 3	   5.0000	   10.00000	   10.0000;
	2	 0.0	 0.0	 3	   40.0000	   20.00000	   5.00000;
	2	 0.0	 0.0	 3	   20.0000	   10.00000	   4.00000;
	2	 0.0	 0.0	 3	   30.0000	   15.000000	   2.00000;
	2	 0.0	 0.0	 3	   1.0000	   2.00000	   0.50000;
];

%% branch data
%	fbus	tbus	r	x	b	rateA	rateB	rateC	ratio	angle	status	angmin	angmax
mpc.branch = [
	1	2	0.00088341193	0.00080070019	0	0.9568	0.9568	0.9568	0	0	1	-30	30;
	1	3	0.00126201704	0.00114385742	0	0.9568	0.9568	0.9568	0	0	1	-30	30;
	1	7	0.00050543829	0.00116429732	0	6.6144	6.6144	6.6144	0	0	1	-30	30;
	3	4	0.00100961363	0.00091508593	0	0.9568	0.9568	0.9568	0	0	1	-30	30;
	3	5	0.00164062215	0.00148701464	0	0.9568	0.9568	0.9568	0	0	1	-30	30;
	5	6	0.00126201704	0.00114385742	0	0.9568	0.9568	0.9568	0	0	1	-30	30;
	7	8	0.00033695886	0.00077619821	0	6.6144	6.6144	6.6144	0	0	1	-30	30;
	8	12	0.00113581534	0.00102947167	0	0.9568	0.9568	0.9568	0	0	1	-30	30;
	8	9	0.00113581534	0.00102947167	0	0.9568	0.9568	0.9568	0	0	1	-30	30;
	8	13	0.00050543829	0.00116429732	0	6.6144	6.6144	6.6144	0	0	1	-30	30;
	9	14	0.00214542897	0.00194455761	0	0.9568	0.9568	0.9568	0	0	1	-30	30;
	13	34	0.00075721023	0.00068631445	0	0.9568	0.9568	0.9568	0	0	1	-30	30;
	13	18	0.0013899553	0.00320181762	0	6.6144	6.6144	6.6144	0	0	1	-30	30;
	14	11	0.00126201704	0.00114385742	0	0.9568	0.9568	0.9568	0	0	1	-30	30;
	14	10	0.00126201704	0.00114385742	0	0.9568	0.9568	0.9568	0	0	1	-30	30;
	15	16	0.00189302556	0.00171578612	0	0.9568	0.9568	0.9568	0	0	1	-30	30;
	15	17	0.00176682386	0.00160140038	0	0.9568	0.9568	0.9568	0	0	1	-30	30;
	18	19	0.00126201704	0.00114385742	0	0.9568	0.9568	0.9568	0	0	1	-30	30;
	18	21	0.00050543829	0.00116429732	0	6.6144	6.6144	6.6144	0	0	1	-30	30;
	19	20	0.00164062215	0.00148701464	0	0.9568	0.9568	0.9568	0	0	1	-30	30;
	21	22	0.00265023579	0.00240210057	0	0.9568	0.9568	0.9568	0	0	1	-30	30;
	21	23	0.00042119858	0.00097024776	0	6.6144	6.6144	6.6144	0	0	1	-30	30;
	23	24	0.00277643749	0.00251648631	0	0.9568	0.9568	0.9568	0	0	1	-30	30;
	23	25	0.00046331843	0.00106727254	0	6.6144	6.6144	6.6144	0	0	1	-30	30;
	25	26	0.00061068791	0.00129026737	0	4.4096	4.4096	4.4096	0	0	1	-30	30;
	25	28	0.00033695886	0.00077619821	0	6.6144	6.6144	6.6144	0	0	1	-30	30;
	26	27	0.00047982622	0.00101378151	0	4.4096	4.4096	4.4096	0	0	1	-30	30;
	26	31	0.00113581534	0.00102947167	0	0.9568	0.9568	0.9568	0	0	1	-30	30;
	27	33	0.00252403408	0.00228771483	0	0.9568	0.9568	0.9568	0	0	1	-30	30;
	28	29	0.00050543829	0.00116429732	0	6.6144	6.6144	6.6144	0	0	1	-30	30;
	29	30	0.00058967801	0.00135834687	0	6.6144	6.6144	6.6144	0	0	1	-30	30;
	30	121	0.00033695886	0.00077619821	0	6.6144	6.6144	6.6144	0	0	1	-30	30;
	31	32	0.00151442045	0.0013726289	0	0.9568	0.9568	0.9568	0	0	1	-30	30;
	34	15	0.00050480682	0.00045754297	0	0.9568	0.9568	0.9568	0	0	1	-30	30;
	35	36	0.00113413469	0.00239621083	0	4.4096	4.4096	4.4096	0	0	1	-30	30;
	35	40	0.00042119858	0.00097024776	0	6.6144	6.6144	6.6144	0	0	1	-30	30;
	36	37	0.00151442045	0.000013726289	0	0.9568	0.9568	0.9568	0	0	1	-30	30;
	36	38	0.00126201704	0.00114385742	0	0.9568	0.9568	0.9568	0	0	1	-30	30;
	38	39	0.00164062215	0.00148701464	0	0.9568	0.9568	0.9568	0	0	1	-30	30;
	40	41	0.00164062215	0.00148701464	0	0.9568	0.9568	0.9568	0	0	1	-30	30;
	40	42	0.00042119858	0.00097024776	0	6.6144	6.6144	6.6144	0	0	1	-30	30;
	42	43	0.00252403408	0.00228771483	0	0.9568	0.9568	0.9568	0	0	1	-30	30;
	42	44	0.00033695886	0.00077619821	0	6.6144	6.6144	6.6144	0	0	1	-30	30;
	44	45	0.00100961363	0.00091508593	0	0.9568	0.9568	0.9568	0	0	1	-30	30;
	44	47	0.00042119858	0.00097024776	0	6.6144	6.6144	6.6144	0	0	1	-30	30;
	45	46	0.00151442045	0.0013726289	0	0.9568	0.9568	0.9568	0	0	1	-30	30;
	47	48	0.00025271915	0.00058214866	0	6.6144	6.6144	6.6144	0	0	1	-30	30;
	47	49	0.00042119858	0.00097024776	0	6.6144	6.6144	6.6144	0	0	1	-30	30;
	49	50	0.00042119858	0.00097024776	0	6.6144	6.6144	6.6144	0	0	1	-30	30;
	50	51	0.00042119858	0.00097024776	0	6.6144	6.6144	6.6144	0	0	1	-30	30;
	51	117	0.00084239715	0.00194049553	0	6.6144	6.6144	6.6144	0	0	1	-30	30;
	52	53	0.00033695886	0.00077619821	0	6.6144	6.6144	6.6144	0	0	1	-30	30;
	53	54	0.00021059929	0.00048512388	0	6.6144	6.6144	6.6144	0	0	1	-30	30;
	54	55	0.00046331843	0.00106727254	0	6.6144	6.6144	6.6144	0	0	1	-30	30;
	54	57	0.00058967801	0.00135834687	0	6.6144	6.6144	6.6144	0	0	1	-30	30;
	55	56	0.00046331843	0.00106727254	0	6.6144	6.6144	6.6144	0	0	1	-30	30;
	57	58	0.00126201704	0.00114385742	0	0.9568	0.9568	0.9568	0	0	1	-30	30;
	57	60	0.00126359573	0.00291074329	0	6.6144	6.6144	6.6144	0	0	1	-30	30;
	58	59	0.00126201704	0.00114385742	0	0.9568	0.9568	0.9568	0	0	1	-30	30;
	60	61	0.00092663687	0.00213454508	0	6.6144	6.6144	6.6144	0	0	1	-30	30;
	60	62	0.00139071947	0.00067497638	0	3.8688	3.8688	3.8688	0	0	1	-30	30;
	62	63	0.00097350363	0.00047248346	0	3.8688	3.8688	3.8688	0	0	1	-30	30;
	63	64	0.00194700726	0.00094496693	0	3.8688	3.8688	3.8688	0	0	1	-30	30;
	64	65	0.0023642231	0.00114745984	0	3.8688	3.8688	3.8688	0	0	1	-30	30;
	65	66	0.00180793531	0.00087746929	0	3.8688	3.8688	3.8688	0	0	1	-30	30;
	67	68	0.00100961363	0.00091508593	0	0.9568	0.9568	0.9568	0	0	1	-30	30;
	67	72	0.00046331843	0.00106727254	0	6.6144	6.6144	6.6144	0	0	1	-30	30;
	67	97	0.00042119858	0.00097024776	0	6.6144	6.6144	6.6144	0	0	1	-30	30;
	68	69	0.00138821875	0.00125824316	0	0.9568	0.9568	0.9568	0	0	1	-30	30;
	69	70	0.00164062215	0.00148701464	0	0.9568	0.9568	0.9568	0	0	1	-30	30;
	70	71	0.00138821875	0.00125824316	0	0.9568	0.9568	0.9568	0	0	1	-30	30;
	72	73	0.00138821875	0.00125824316	0	0.9568	0.9568	0.9568	0	0	1	-30	30;
	72	76	0.00033695886	0.00077619821	0	6.6144	6.6144	6.6144	0	0	1	-30	30;
	73	74	0.00176682386	0.00160140038	0	0.9568	0.9568	0.9568	0	0	1	-30	30;
	74	75	0.00201922727	0.00183017186	0	0.9568	0.9568	0.9568	0	0	1	-30	30;
	76	77	0.00067391772	0.00155239642	0	6.6144	6.6144	6.6144	0	0	1	-30	30;
	76	86	0.00117935601	0.00271669374	0	6.6144	6.6144	6.6144	0	0	1	-30	30;
	77	78	0.00016847943	0.00038809911	0	6.6144	6.6144	6.6144	0	0	1	-30	30;
	78	79	0.00037907872	0.00087322299	0	6.6144	6.6144	6.6144	0	0	1	-30	30;
	78	80	0.00080027729	0.00184347075	0	6.6144	6.6144	6.6144	0	0	1	-30	30;
	80	81	0.00080027729	0.00184347075	0	6.6144	6.6144	6.6144	0	0	1	-30	30;
	81	82	0.00042119858	0.00097024776	0	6.6144	6.6144	6.6144	0	0	1	-30	30;
	81	84	0.00340744601	0.00308841502	0	0.9568	0.9568	0.9568	0	0	1	-30	30;
	82	83	0.00042119858	0.00097024776	0	6.6144	6.6144	6.6144	0	0	1	-30	30;
	84	85	0.00239783238	0.00217332909	0	0.9568	0.9568	0.9568	0	0	1	-30	30;
	86	87	0.00075815744	0.00174644597	0	6.6144	6.6144	6.6144	0	0	1	-30	30;
	87	88	0.00088341193	0.00080070019	0	0.9568	0.9568	0.9568	0	0	1	-30	30;
	87	89	0.00046331843	0.00106727254	0	6.6144	6.6144	6.6144	0	0	1	-30	30;
	89	90	0.00113581534	0.00102947167	0	0.9568	0.9568	0.9568	0	0	1	-30	30;
	89	91	0.00037907872	0.00087322299	0	6.6144	6.6144	6.6144	0	0	1	-30	30;
	91	92	0.00151442045	0.0013726289	0	0.9568	0.9568	0.9568	0	0	1	-30	30;
	91	93	0.00037907872	0.00087322299	0	6.6144	6.6144	6.6144	0	0	1	-30	30;
	93	94	0.00138821875	0.00125824316	0	0.9568	0.9568	0.9568	0	0	1	-30	30;
	93	95	0.00050543829	0.00116429732	0	6.6144	6.6144	6.6144	0	0	1	-30	30;
	95	96	0.00100961363	0.00091508593	0	0.9568	0.9568	0.9568	0	0	1	-30	30;
	97	98	0.00046331843	0.00106727254	0	6.6144	6.6144	6.6144	0	0	1	-30	30;
	98	99	0.00092663687	0.00213454508	0	6.6144	6.6144	6.6144	0	0	1	-30	30;
	99	100	0.00050543829	0.00116429732	0	6.6144	6.6144	6.6144	0	0	1	-30	30;
	100	123	0.00134783544	0.00310479284	0	6.6144	6.6144	6.6144	0	0	1	-30	30;
	101	102	0.00113581534	0.00102947167	0	0.9568	0.9568	0.9568	0	0	1	-30	30;
	101	105	0.00046331843	0.00106727254	0	6.6144	6.6144	6.6144	0	0	1	-30	30;
	102	103	0.00164062215	0.00148701464	0	0.9568	0.9568	0.9568	0	0	1	-30	30;
	103	104	0.00353364772	0.00320280076	0	0.9568	0.9568	0.9568	0	0	1	-30	30;
	105	106	0.00113581534	0.00102947167	0	0.9568	0.9568	0.9568	0	0	1	-30	30;
	105	108	0.00054755815	0.00126132209	0	6.6144	6.6144	6.6144	0	0	1	-30	30;
	106	107	0.0029026392	0.00263087206	0	0.9568	0.9568	0.9568	0	0	1	-30	30;
	108	109	0.00227163068	0.00205894335	0	0.9568	0.9568	0.9568	0	0	1	-30	30;
	108	122	0.0016847943	0.00388099105	0	6.6144	6.6144	6.6144	0	0	1	-30	30;
	109	110	0.00151442045	0.0013726289	0	0.9568	0.9568	0.9568	0	0	1	-30	30;
	110	111	0.0029026392	0.00263087206	0	0.9568	0.9568	0.9568	0	0	1	-30	30;
	110	112	0.00063100852	0.00057192871	0	0.9568	0.9568	0.9568	0	0	1	-30	30;
	112	113	0.00265023579	0.00240210057	0	0.9568	0.9568	0.9568	0	0	1	-30	30;
	113	114	0.00164062215	0.00148701464	0	0.9568	0.9568	0.9568	0	0	1	-30	30;
	115	35	0.00063179786	0.00145537165	0	6.6144	6.6144	6.6144	0	0	1	-30	30;
	116	1	0.00067391772	0.00155239642	0	6.6144	6.6144	6.6144	0	0	1	-30	30;
	118	52	0.00067391772	0.00155239642	0	6.6144	6.6144	6.6144	0	0	1	-30	30;
	119	67	0.00058967801	0.00135834687	0	6.6144	6.6144	6.6144	0	0	1	-30	30;
	120	101	0.00042119858	0.00097024776	0	6.6144	6.6144	6.6144	0	0	1	-30	30;
	13	118	0.000647349	0.001957387	0	6.6144	6.6144	6.6144	0	0	1	-30	30;
	18	115	0.000647349	0.001957387	0	6.6144	6.6144	6.6144	0	0	1	-30	30;
	60	119	0.000647349	0.001957387	0	6.6144	6.6144	6.6144	0	0	1	-30	30;
	97	120	0.000647349	0.001957387	0	6.6144	6.6144	6.6144	0	0	1	-30	30;
];

%% convert branch impedances from Ohms to p.u.
% [PQ, PV, REF, NONE, BUS_I, BUS_TYPE, PD, QD, GS, BS, BUS_AREA, VM, ...
%     VA, BASE_KV, ZONE, VMAX, VMIN, LAM_P, LAM_Q, MU_VMAX, MU_VMIN] = idx_bus;
% [F_BUS, T_BUS, BR_R, BR_X, BR_B, RATE_A, RATE_B, RATE_C, ...
%     TAP, SHIFT, BR_STATUS, PF, QF, PT, QT, MU_SF, MU_ST, ...
%     ANGMIN, ANGMAX, MU_ANGMIN, MU_ANGMAX] = idx_brch;
% Vbase = mpc.bus(1, BASE_KV) * 1e3;      %% in Volts
% Sbase = mpc.baseMVA * 1e6;              %% in VA
% mpc.branch(:, [BR_R BR_X]) = mpc.branch(:, [BR_R BR_X]) / (Vbase^2 / Sbase);
%
%% convert loads from kW to MW
% mpc.bus(:, [PD, QD]) = mpc.bus(:, [PD, QD]) / 1e3;
